@<TRIPOS>MOLECULE
*****
 25 27 0 0 0
SMALL
GASTEIGER

@<TRIPOS>ATOM
      1 MO         -2.6050    0.8240   -0.1830 Mo      1  UNL1        0.0000
      2 MO         -0.4940    2.6670   -0.1830 Mo      1  UNL1        0.0000
      3 MO         -0.7770   -1.1220    0.7290 Mo      1  UNL1        0.0000
      4 MO          1.4070    0.5220   -0.2690 Mo      1  UNL1        0.0000
      5 MO          0.2840    1.6520    0.0700 Mo      1  UNL1        0.0000
      6 MO         -0.5720    0.6110    1.7830 Mo      1  UNL1        0.0000
      7 O          -0.6380    0.6750   -0.2340 O.3     1  UNL1        0.0000
      8 O          -0.6800   -0.9140    2.3010 O.3     1  UNL1        0.0000
      9 O           1.1040   -1.3690   -0.4000 O.3     1  UNL1        0.0000
     10 O          -0.1030   -0.6880   -0.2520 O.3     1  UNL1        0.0000
     11 O          -2.6950   -1.0740   -0.1150 O.3     1  UNL1        0.0000
     12 O          -2.4280    2.7470   -0.1380 O.3     1  UNL1        0.0000
     13 O           1.3840    2.4500   -0.3200 O.3     1  UNL1        0.0000
     14 O          -0.3140    2.5100    1.7150 O.3     1  UNL1        0.0000
     15 O          -0.4330    2.6100   -2.1040 O.3     1  UNL1        0.0000
     16 O           1.3160    0.3450    1.6320 O.3     1  UNL1        0.0000
     17 O          -2.4730    0.8580    1.7290 O.3     1  UNL1        0.0000
     18 O          -2.6190    0.9530   -2.0890 O.3     1  UNL1        0.0000
     19 O           1.1710    0.3900   -2.1890 O.3     1  UNL1        0.0000
     20 O          -0.5240    0.5270    3.7660 O.3     1  UNL1        0.0000
     21 O           3.3500    0.3300   -0.3070 O.3     1  UNL1        0.0000
     22 O          -4.6000    0.9510   -0.0960 O.3     1  UNL1        0.0000
     23 O           0.1790    1.7220   -1.9200 O.3     1  UNL1        0.0000
     24 O          -0.8870   -2.9100    1.5600 O.3     1  UNL1        0.0000
     25 O          -0.3400    4.6520   -0.0410 O.3     1  UNL1        0.0000
@<TRIPOS>BOND
     1    19    23    1
     2    15    23    1
     3    15     2    1
     4    18     1    1
     5     9     4    1
     6     9    10    1
     7    13     5    1
     8     4     5    1
     9     4    16    1
    10    10     3    1
    11     7     5    1
    12     1    12    1
    13     1    11    1
    14     1    22    1
    15     1    17    1
    16     2    12    1
    17     2    25    1
    18     2     5    1
    19     2    14    1
    20    11     3    1
    21     3    24    1
    22     3     8    1
    23    16     6    1
    24    14     6    1
    25    17     6    1
    26     6     8    1
    27     6    20    1
