# Molecule Name
# Created by GaussView 6.0.16
#

#
#

@<TRIPOS>MOLECULE
Molecule Name
25 36
SMALL
NO_CHARGES


@<TRIPOS>ATOM
1 Mo1    -2.0808    -0.0000    -0.0000 Mo
2 Mo2    -0.0000    -0.0000    -2.0808 Mo
3 Mo3     0.0000    -0.0000     2.0808 Mo
4 Mo4     2.0808     0.0000    -0.0000 Mo
5 Mo5     0.0000    -2.0808    -0.0000 Mo
6 Mo6    -0.0000     2.0808    -0.0000 Mo
7 O7     0.0000    -0.0000     0.0000 O
8 O8    -0.0000     1.9996     1.9996 O
9 O9     1.9996     0.0000     1.9996 O
10 O10     0.0000    -1.9996     1.9996 O
11 O11    -1.9996    -0.0000     1.9996 O
12 O12    -1.9996     0.0000    -1.9996 O
13 O13     1.9996    -0.0000    -1.9996 O
14 O14    -0.0000     1.9996    -1.9996 O
15 O15    -0.0000    -1.9996    -1.9996 O
16 O16     1.9996     1.9996    -0.0000 O
17 O17    -1.9996     1.9996     0.0000 O
18 O18    -1.9996    -1.9996    -0.0000 O
19 O19     1.9996    -1.9996     0.0000 O
20 O20    -0.0000     3.7729     0.0000 O
21 O21     3.7729     0.0000     0.0000 O
22 O22    -3.7729    -0.0000     0.0000 O
23 O23     0.0000    -3.7729     0.0000 O
24 O24    -0.0000    -0.0000     3.7729 O
25 O25    -0.0000     0.0000    -3.7729 O
@<TRIPOS>BOND
1 1 7 1
2 1 11 1
3 1 12 1
4 1 17 1
5 1 18 1
6 1 22 1
7 2 7 1
8 2 12 1
9 2 13 1
10 2 14 1
11 2 15 1
12 2 25 1
13 3 7 1
14 3 8 1
15 3 9 1
16 3 10 1
17 3 11 1
18 3 24 1
19 4 7 1
20 4 9 1
21 4 13 1
22 4 16 1
23 4 19 1
24 4 21 1
25 5 7 1
26 5 10 1
27 5 15 1
28 5 18 1
29 5 19 1
30 5 23 1
31 6 7 1
32 6 8 1
33 6 14 1
34 6 16 1
35 6 17 1
36 6 20 1
